/*---------------------------------------------------------------------------*\
| =========                 |                                                 |
| \\      /  F ield         | OpenFOAM: The Open Source CFD Toolbox           |
|  \\    /   O peration     | Version:  v2006                                 |
|   \\  /    A nd           | Website:  www.openfoam.com                      |
|    \\/     M anipulation  |                                                 |
\*---------------------------------------------------------------------------*/
Build  : 59c83aa6-20200910 OPENFOAM=2006
Arch   : "LSB;label=32;scalar=64"
Exec   : test-stencilFraction -parallel
Date   : Sep 18 2020
Time   : 12:57:08
Host   : henning-AB350M-HD3
PID    : 18711
I/O    : uncollated
Case   : /media/henning/ssd1linux/libsAndApps/performanceTests/stencil/testcase-stencil
nProcs : 4
Hosts  :
(
    (henning-AB350M-HD3 4)
)
Pstream initialized with:
    floatTransfer      : 0
    nProcsSimpleSum    : 0
    commsType          : nonBlocking
    polling iterations : 0
trapFpe: Floating point exception trapping enabled (FOAM_SIGFPE).
fileModificationChecking : Monitoring run-time modified files using timeStampMaster (fileModificationSkew 5, maxFileModificationPolls 20)
allowSystemOperations : Allowing user-supplied system call operations

// * * * * * * * * * * * * * * * * * * * * * * * * * * * * * * * * * * * * * //
Create time

Create mesh for time = 0

building stencil
building CPC stencil took 2.55 s
build stencil zoneDistribute took 2.36 s
Collecting data 100 times
standard stencil took to add all values4.5 s
standard stencil took to add all values 4499371 ms
standard stencil count 131471051227
 
zoneDistribute took to add all values 0.94 s
zoneDistribute took to add all values 938296 ms
zoneDistribute count 131471051227
Finalising parallel run
