/*---------------------------------------------------------------------------*\
| =========                 |                                                 |
| \\      /  F ield         | OpenFOAM: The Open Source CFD Toolbox           |
|  \\    /   O peration     | Version:  v2006                                 |
|   \\  /    A nd           | Website:  www.openfoam.com                      |
|    \\/     M anipulation  |                                                 |
\*---------------------------------------------------------------------------*/
Build  : 59c83aa6-20200910 OPENFOAM=2006
Arch   : "LSB;label=32;scalar=64"
Exec   : test-stencilFraction -parallel
Date   : Sep 17 2020
Time   : 10:06:13
Host   : henning-AB350M-HD3
PID    : 13112
I/O    : uncollated
Case   : /media/henning/ssd1linux/libsAndApps/performanceTests/test-stencilFraction/test-stencilFraction
nProcs : 4
Hosts  :
(
    (henning-AB350M-HD3 4)
)
Pstream initialized with:
    floatTransfer      : 0
    nProcsSimpleSum    : 0
    commsType          : nonBlocking
    polling iterations : 0
trapFpe: Floating point exception trapping enabled (FOAM_SIGFPE).
fileModificationChecking : Monitoring run-time modified files using timeStampMaster (fileModificationSkew 5, maxFileModificationPolls 20)
allowSystemOperations : Allowing user-supplied system call operations

// * * * * * * * * * * * * * * * * * * * * * * * * * * * * * * * * * * * * * //
Create time

Create mesh for time = 0

building stencil took 1.26 s
standard stencil took 0.03 s
standard stencil took 17850 ms
standard stencil count 32465799275
build stencil zoneDistribute took 1.3 s
build stencil zoneDistribute took 1300827 ms
zoneDistribute took 7305 ms
zoneDistribute count 32465799275
Finalising parallel run
